2024_grid_models/pegase_1354_modified.uct
##C 2007.05.01
Generated by Ewerszumrode on 2024-04-03
   This is a modified Version of the pegase_1354 grid adapted from MATPOWER 7.1 [1,2]
   
   Further modifications include: 
   - Addition of lines to obtain a more meshed network structure 
   - Addition of double busbars and busbar couplers
   - Adaption of Line parameters: Current limits where adapted to provoke overloads (in n-1 case)
   - Removing edge nodes with only a single connected line (no load or generation)
   
   The purpose of the modifications is to use the grid model to optimize redispatch and grid topology to avoid overloads. 
   In particular, a more meshed grid structure was created to enable the sensible adaptation of the grid topology.
   
   [1] R. D. Zimmerman, C. E. Murillo-Sanchez, and R. J. Thomas, 
   “MATPOWER: Steady-State Operations, Planning and Analysis Tools for Power Systems Research and Education,” 
   Power Systems, IEEE Transactions on, vol. 26, no. 1, pp. 12–19, Feb. 2011.
   [2] R. D. Zimmerman and C. E. Murillo-Sanchez. (2020). MATPOWER
   757 (Version 7.1). [Online]. Available: https://matpower.org
   [3]	S. Fliscounakis, P. Panciatici, F. Capitanescu, L. Wehenkel, 
   "Contingency ranking with respect to overloads in very large power systems taking into account uncertainty, 
   preventive and corrective actions", Power Systems, IEEE Trans. on, (28)4:4909-4917, 2013

##N
##ZNETW
BU00012               0 0
SU00012               0 0        134.000 24.7000
SU00022               0 2 236.31                 -92.100 -14.312 .000000 -120.00 19.8100 -55.020
SU00032               0 0                        -200.00 35.1500 .000000 -200.00 35.1500 -89.550
SU00042               0 0        44.5500 .000000
SU00052               0 0        201.400 53.0000
SU00062               0 0        26.3300 5.30000
SU00072               0 0        382.500 57.9000
SU00082               0 0        34.6400 .000000
SU00092               0 0        31.9400 8.80000
SU00101               0 2 391.00                 -900.00 -115.39 -300.00 -900.00 163.400 -387.88
SU00112               0 0
SU00122               0 0
SU00131               0 0        277.860 58.9500
SU00142               0 2 230.88                 -91.800 -9.5253 .000000 -120.00 19.8800 -54.910
SU00152               0 0        56.0600 18.7000
SU00161               0 2 390.28                 -1200.0 -234.23 -400.00 -1200.0 185.150 -550.69
SU00172               0 0
SU00182               0 2 229.42                 -58.200 -5.8120 .000000 -80.000 13.0100 -36.800
SU00192               0 0                        124.150 -38.050 165.540 -100.00 11.5900 -38.050
SU00202               0 0        29.8300 7.30000
SU00212               0 0
SU00222               0 0        190.470 55.0300
SU00231               0 0
SU00231               0 0
SU00242               0 0        16.2200 2.00000
SU00252               0 0        32.8400 .000000
SU00262               0 0
SU00272               0 0
SU00282               0 0        12.4100 3.90000
SU00292               0 0        65.6700 24.0000
SU00302               0 0        112.400 13.0000
SU00312               0 0
SU00322               0 0        86.6000 23.4000
SU00331               0 0        627.360 -73.130
SU00331               0 0        754.530 -35.330
SU00342               0 0        199.400 -19.900
SU00352               0 0        67.5700 21.2000
SU00362               0 0        30.9300 6.60000
SU00371               0 0        129.600 13.3000
SU00381               0 0
SU00381               0 0
SU00392               0 0        114.100 23.5000
SU00402               0 0
SU00412               0 0
SU00422               0 0        71.7800 17.9000
SU00431               0 2 421.05                 -1808.1 -700.97 -666.67 -2000.0 319.440 -906.61
SU00442               0 0                        -861.30 -440.32 -333.33 -1000.0 172.590 -440.32
SU00451               0 0        348.930 26.4700
SU00461               0 2 390.30                 -837.00 -259.27 -400.00 -1200.0 185.150 -550.69
SU00472               0 0
SU00472               0 0
SU00482               0 0        173.000 -21.300
SU00492               0 0        52.4600 2.90000
SU00502               0 0        23.7300 12.7000
SU00512               0 2 228.10                 124.100 -24.527 165.470 -100.00 12.8800 -36.920
SU00522               0 0        479.000 99.2000
SU00532               0 0
SU00541               0 0        37.9400 15.2000
SU00552               0 2 227.24                 -67.200 -9.3060 .000000 -120.00 17.6200 -57.030
SU00561               0 0
SU00572               0 2 229.03                 246.500 -.09949 328.670 -100.00 11.7300 -38.080
SU00581               0 0                        -3.2900 -1.3200
SU00592               0 0        40.8500 14.5000
SU00602               0 0        145.200 21.4000
SU00612               0 0        30.9300 7.60000
SU00622               0 0
SU00632               0 0        196.700 44.2000
SU00642               0 0        11.9100 2.90000
SU00652               0 0        144.700 20.3000
SU00662               0 2 229.58                 101.000 -8.0350 134.670 -100.00 6.79000 -18.090
SU00672               0 2 230.49                 -49.400 -20.667 .000000 -80.000 12.0900 -37.720
SU00682               0 0
SU00682               0 0
SU00692               0 0        38.3400 5.60000
SU00702               0 0
SU00712               0 2 230.58                 -62.600 -8.0515 .000000 -80.000 13.4400 -36.400
SU00722               0 0        122.340 12.0000                 .000000 -50.000
SU00732               0 0
SU00742               0 0        79.5900 18.8000
SU00752               0 2 233.82                 -67.290 2.11890 .000000 -160.00 22.5400 -77.090
SU00761               0 0
SU00772               0 0                        -50.000 .000000 .000000 -100.00 .000000 -20.000
SU00782               0 0                        -10.860 -5.9300
SU00792               0 0        36.3400 15.2000
SU00802               0 0        73.5800 3.24000
SU00812               0 0        42.5500 8.20000
SU00821               0 0        20.4200 8.10000
SU00832               0 0
SU00842               0 0
SU00852               0 0        77.3900 24.1000
SU00862               0 0        156.900 -4.0000
SU00872               0 0        69.0800 21.5000
SU00882               0 0
SU00892               0 0
SU00902               0 0        28.3300 44.8000
SU00912               0 0        71.7700 13.5700
SU00922               0 2 229.65                 -50.600 -13.866 .000000 -80.000 12.1700 -37.660
SU00931               0 0        73.7800 .000000
SU00942               0 0
SU00952               0 0        73.1800 22.3000
SU00962               0 0        41.9500 8.50000
SU00972               0 0        147.760 32.7300
SU00982               0 0        95.7100 25.9000
SU00991               0 0        449.560 245.720
SU01002               0 0        3.67000 -1.8600
SU01012               0 0                        -28.130 -.83000
SU01021               0 2 396.70                 -1250.4 -640.67 -666.67 -2000.0 296.100 -928.89
SU01032               0 0        83.1900 25.8000
SU01042               0 0        62.1600 8.00000
SU01051               0 2 394.42                 -860.80 -193.34 -333.33 -1000.0 173.300 -439.37
SU01061               0 0                        -15.380 -4.9400
SU01072               0 0        100.800 13.2000
SU01082               0 0                        -28.100 6.39000 .000000 -40.000 6.39000 -18.520
SU01092               0 0        370.500 -17.000
SU01102               0 0
SU01112               0 0        58.4600 6.60000
SU01121               0 0
SU01121               0 0                        -40.000 7.92000 .000000 -41.060 7.92000 -16.990
SU01131               0 0
SU01142               0 0        333.500 -1.4000
SU01152               0 0        73.9800 22.5000
SU01162               0 0
SU01171               0 2 400.12                 -1250.4 -384.75 -666.67 -2000.0 297.680 -926.35
SU01181               0 0                        -.63000 -.83000
SU01192               0 0                        .600000 38.1600 .800000 -100.00 38.1600 -111.23
SU01202               0 0        88.9200 19.7900
SU01211               0 0        108.910 33.7000
SU01222               0 0
SU01232               0 0                        -28.140 -.76000
SU01242               0 0                        -15.600 -11.760 .000000 -31.920 8.89000 -11.760
SU01252               0 2 231.95                 241.800 -38.566 322.400 -100.00 16.5200 -58.160
SU01262               0 0
SU01272               0 0        88.8000 -3.2000
SU01282               0 0        209.200 23.5000
SU01292               0 0        11.7100 3.80000
SU01302               0 0        36.8400 13.9000
SU01312               0 0        27.3300 5.00000
SU01322               0 2 228.66                 -573.68 -126.67 -312.78 -912.78 155.830 -396.02
SU01331               0 0        450.000 50.0000
SU01342               0 0
SU01352               0 2 227.84                 -115.50 44.8293 -39.350 -472.16 150.950 -160.36
SU01362               0 0        197.500 -31.000
SU01371               0 0        192.110 45.5000
SU01382               0 0        73.1400 21.5500
SU01392               0 2 234.23                 -31.000 -1.0257 .000000 -40.000 6.75000 -18.140
SU01402               0 0
SU01412               0 0        248.700 8.10000
SU01422               0 0        280.100 66.2000
SU01432               0 0        39.7400 11.8000
SU01442               0 0        177.300 36.4000
SU01452               0 0        25.7300 7.30000
SU01462               0 0        41.4500 4.90000
SU01462               0 0        45.5500 -59.900
SU01472               0 0        72.0800 21.3000
SU01482               0 0        3.90000 1.00000
SU01491               0 2 391.73                 -855.60 -162.84 -333.33 -1000.0 171.270 -441.85
SU01502               0 0        14.0200 6.50000
SU01512               0 0        3.20000 1.70000
SU01521               0 2 383.77                 -836.20 161.900 -666.67 -2000.0 263.650 -962.20
SU01531               0 0
SU01531               0 0
SU01542               0 0        170.200 20.5000
SU01552               0 0        321.980 84.4000
SU01561               0 0        101.200 2.10000
SU01572               0 0        77.1900 18.6000
SU01582               0 0
SU01591               0 0
SU01591               0 0
SU01591               0 0
SU01601               0 2 395.33                 -176.00 7.75497 .000000 -200.00 36.1900 -88.390
SU01612               0 0
SU01622               0 0        199.860 56.9300
SU01632               0 0        161.200 39.3000
SU01641               0 0
SU01652               0 0        79.0900 18.7000
SU01661               0 0
SU01661               0 0
SU01672               0 0        107.300 14.2000
SU01682               0 0
SU01692               0 0        63.6700 20.2000
SU01702               0 0        155.600 54.7000
SU01712               0 0        35.6600 -9.3900
SU01722               0 0        20.9200 7.70000
SU01732               0 0        105.200 .100000
SU01742               0 2 236.13                 121.300 -56.731 161.730 -100.00 16.2600 -58.350
SU01752               0 0        69.8300 15.1200
SU01762               0 0
SU01771               0 0                        53.2900 -19.510 71.0500 -100.00 14.7400 -19.510
SU01782               0 0        74.9800 26.9000
SU01791               0 0
SU01791               0 2 374.18                 155.390 -92.006 207.180 -100.00 65.3000 -183.92
SU01802               0 0
SU01812               0 0        10.0000 5.00000
SU01822               0 0
SU01832               0 0        100.700 -4.2000
SU01842               0 0        141.300 32.4000
SU01852               0 2 231.71                 -38.900 20.9638 .000000 -119.30 36.5000 -41.670
SU01862               0 0        208.880 60.8000
SU01872               0 0        170.900 39.0000
SU01882               0 2 235.96                 -110.50 11.0630 .000000 -200.00 28.9300 -95.690
...
##L
BU00012  SU03292  1 0 .00858 .19580 .0000000   2245
BU00012  SU04772  1 0 .00858 .19580 .0000000   2245
BU00012  SU04772  2 0 .00858 .19580 .0000000   2245
BU00012  SU04912  1 0 .00858 .19580 .0000000   2245
SU00012  SU07512  1 0 .28992 .90024 .0000000   2059
SU00022  SU03732  1 0 .03920 .40704 .0000000   2405
SU00022  SU04092  1 0 1.3262 10.082 .0000000   1882
SU00022  SU05792  1 0 .02904 .31508 .0000000   2405
SU00022  SU06382  1 0 2.3140 13.421 .0000000   2059
SU00022  SU06382  2 0 1.3789 10.130 .0000000   2145
SU00022  SU06462  1 0 6.4372 46.227 .0000000   2318
SU00022  SU06892  1 0 1.0740 8.2130 .0000000   2405
SU00022  SU07612  1 0 2.4829 14.588 .0000000   1882
SU00022  SU08282  1 0 .54692 3.1508 .0000000  10000
SU00022  SU10282  1 0 1.4670 11.016 .0000000   2405
SU00022  SU10412  1 0 .60500 3.4219 .0000000   2145
SU00032  SU01462  1 0 .16020 1.3068 .0000000  10000
SU00042  SU03542  1 0 4.3560 17.811 .0000000   1795
SU00042  SU07642  1 0 1.8968 8.6060 .0000000   1795
SU00052  SU01272  1 0 5.0288 31.005 .0000000   1795
SU00052  SU11802  1 0 10.317 64.189 .0000000    839
SU00062  SU09832  1 0 .22700 .56096 .0000000   1364
SU00072  SU02962  1 0 .39688 2.1199 .0000000   1364
SU00072  SU02962  2 0 .38720 2.1591 .0000000   1277
SU00072  SU03852  1 0 6.5292 27.404 .0000000   1623
SU00072  SU05732  1 0 .53724 3.4069 .0000000   2232
SU00072  SU05732  2 0 .52804 4.2979 .0000000   2059
SU00072  SU11002  1 0 .98688 7.7488 .0000000  10000
SU00082  SU09272  1 0 1.2250 6.3598 .0000000  10000
SU00092  SU09752  1 0 .15488 1.2390 .0000000   1709
SU00092  SU10702  1 0 1.0498 8.6641 .0000000   1450
SU00101  SU03611  1 0 .00836 .16720 .0000000  10000
SU00112  SU02882  1 0 .02904 .16892 .0000000   1536
SU00112  SU03102  1 0 2.4931 16.901 .0000000   1882
SU00112  SU11062  1 0 2.8675 14.638 .0000000    939
SU00122  SU02532  1 0 .17908 .72600 .0000000  10000
SU00131  SU00581  1 0 2.1151 23.074 .0000000   3374
SU00131  SU00581  2 0 2.1987 22.137 .0000000   3895
SU00131  SU02581  1 0 5.6764 39.116 .0000000   2421
SU00131  SU11011  1 0 1.9897 17.757 .0000000   2508
SU00131  SU11011  2 0 1.6218 16.912 .0000000   3029
SU00131  SU11101  1 0 .86636 10.154 .0000000   5677
SU00142  SU09572  1 0 .03920 .25216 .0000000   1968
SU00152  SU00222  1 0 4.2060 18.237 .0000000   1364
SU00152  SU03002  1 0 .83200 4.0511 .0000000   1623
SU00161  SU11011  1 0 .01672 .35948 .0000000  10000
SU00172  SU02652  1 0 .15004 .88088 .0000000  10000
SU00182  SU02472  1 0 .28120 2.1591 .0000000   1882
SU00192  SU02942  1 0 .32380 2.0328 .0000000   1709
SU00192  SU04562  1 0 .07696 .28992 .0000000   1968
SU00192  SU04562  2 0 .07696 .30008 .0000000   1795
SU00192  SU07162  1 0 1.9118 12.202 .0000000   2145
SU00202  SU01402  1 0 .11616 .19796 .0000000   1277
SU00212  SU06702  1 0 1.4670 5.9532 .0000000  10000
SU00222  SU09702  1 0 1.6069 11.626 .0000000   2059
SU00231  SU04211  1 0 .44308 4.2051 .0000000   3461
SU00231  SU04211  2 0 .42636 4.2970 .0000000   2942
SU00242  SU11162  1 0 .41624 3.1610 .0000000  10000
SU00252  SU00352  1 0 1.4331 6.2102 .0000000   1277
SU00252  SU09232  1 0 .28604 1.6408 .0000000  10000
SU00262  SU01822  1 0 .32912 1.8731 .0000000   2232
SU00262  SU03402  1 0 .64904 4.0409 .0000000   1709
SU00262  SU03402  2 0 .59484 4.6798 .0000000   2405
SU00262  SU09162  1 0 2.0522 15.987 .0000000  10000
SU00272  SU01462  1 0 .24684 2.8851 .0000000  10000
SU00272  SU05182  1 0 .42108 1.4912 .0000000   1709
SU00272  SU11152  1 0 .31768 3.3524 .0000000  10000
SU00282  SU11212  1 0 .19144 .52668 .0000000  10000
SU00292  SU00412  1 0 .02904 .18876 .0000000   2059
SU00292  SU00472  1 0 1.1858 5.4600 .0000000   1709
SU00292  SU09202  1 0 1.0019 4.2790 .0000000   1450
SU00292  SU10262  1 0 .47916 2.9432 .0000000  10000
SU00292  SU10562  1 0 .31508 1.9171 .0000000   2318
SU00302  SU00342  1 0 3.6402 18.731 .0000000   1709
SU00302  SU10282  1 0 .98688 5.2272 .0000000   1536
SU00312  SU03882  1 0 .11084 1.1519 .0000000   1900
SU00312  SU03902  1 0 .49900 4.2539 .0000000   2405
SU00322  SU01732  1 0 .48884 2.2361 .0000000   1364
SU00331  SU01661  1 0 .46816 6.0108 .0000000   2508
SU00331  SU01661  2 0 .45144 6.2867 .0000000  10000
SU00331  SU02671  1 0 .87780 7.3317 .0000000   3461
SU00331  SU09061  1 0 .05852 .63536 .0000000   2334
SU00331  SU10371  1 0 .06688 .76076 .0000000   1729
SU00331  SU10511  1 0 .55176 5.1999 .0000000   4239
SU00342  SU10032  1 0 1.3068 10.111 .0000000  10000
SU00342  SU11282  1 0 .49408 5.4666 .0000000  10000
SU00342  SU11282  2 0 .55092 4.8246 .0000000  10000
SU00352  SU06392  1 0 1.3702 9.1718 .0000000   1968
SU00352  SU06492  1 0 1.8440 5.6870 .0000000  10000
SU00352  SU07382  1 0 1.8300 12.952 .0000000   1450
SU00362  SU00802  1 0 5.9871 32.447 .0000000   1277
SU00362  SU09842  1 0 6.3888 27.215 .0000000   1277
SU00371  SU00821  1 0 .46816 5.9774 .0000000   4066
SU00371  SU04211  1 0 .44308 5.2250 .0000000   4066
SU00381  SU00561  1 0 .46816 6.4623 .0000000   1729
SU00381  SU02671  1 0 1.9228 13.217 .0000000   2942
SU00392  SU04672  1 0 .70712 4.3028 .0000000   1882
SU00402  SU05862  1 0 .20812 .18392 .0000000  10000
SU00412  SU10262  1 0 .43996 2.8938 .0000000  10000
SU00422  SU09342  1 0 .67808 2.9621 .0000000   1623
SU00422  SU11032  1 0 2.1159 16.234 .0000000    789
SU00431  SU10431  1 0 .20900 4.0044 .0000000  10000
SU00442  SU04772  1 0 .05016 .92796 .0000000   3877
SU00451  SU05051  1 0 .63536 5.9356 .0000000   3200
SU00461  SU11011  1 0 .02508 .34276 .0000000   3634
SU00472  SU01222  1 0 1.4472 10.919 .0000000   1709
SU00472  SU02042  1 0 1.4080 8.2280 .0000000  10000
SU00472  SU02892  1 0 .34412 3.7612 .0000000  10000
SU00472  SU03552  1 0 1.6500 8.8040 .0000000   1536
SU00472  SU04132  1 0 .17424 1.2918 .0000000  10000
SU00472  SU04502  1 0 .97284 5.7838 .0000000   2318
SU00472  SU05492  1 0 1.3068 7.4149 .0000000   1623
SU00472  SU05492  2 0 .50820 5.3971 .0000000  10000
SU00472  SU06162  1 0 .50820 3.6740 .0000000   2405
SU00472  SU06312  1 0 .87120 5.4058 .0000000   1623
SU00472  SU07302  1 0 .15004 1.0701 .0000000   1450
SU00472  SU08092  1 0 .98300 7.5988 .0000000   2059
SU00472  SU09072  1 0 .52804 3.5380 .0000000   2145
SU00472  SU09202  1 0 .17424 1.2439 .0000000  10000
SU00482  SU01412  1 0 1.6311 9.7332 .0000000   1450
SU00482  SU04882  1 0 3.2912 22.327 .0000000   1882
SU00492  SU02572  1 0 .30492 1.9892 .0000000  10000
SU00502  SU00832  1 0 .10600 .79376 .0000000   1450
SU00512  SU02132  1 0 1.9069 21.050 .0000000    789
SU00512  SU07942  1 0 .13116 .70180 .0000000   1623
SU00522  SU07282  1 0 .36784 2.9519 .0000000   1882
SU00522  SU09112  1 0 .25700 1.4568 .0000000  10000
SU00522  SU11022  1 0 2.8411 17.676 .0000000   1364
SU00522  SU11022  2 0 2.9190 17.158 .0000000   2405
SU00522  SU11022  3 0 2.7540 18.266 .0000000  10000
SU00532  SU07102  1 0 2.8508 12.390 .0000000   1709
SU00532  SU08012  1 0 2.9718 11.340 .0000000   1536
SU00541  SU02001  1 0 .72732 9.3966 .0000000   2247
SU00541  SU04571  1 0 .57684 6.8970 .0000000   1729
SU00552  SU06862  1 0 1.2439 8.3098 .0000000   1709
SU00561  SU11041  1 0 2.1234 31.108 .0000000   3808
SU00572  SU05652  1 0 .33396 2.4200 .0000000   2232
SU00572  SU05752  1 0 .70180 3.9882 .0000000   1277
SU00581  SU01771  1 0 1.2707 12.766 .0000000   3634
SU00581  SU01971  1 0 .64372 7.6912 .0000000   3461
SU00581  SU08431  1 0 1.6302 24.445 .0000000  10000
SU00581  SU08821  1 0 1.2456 13.025 .0000000   3982
SU00581  SU11051  1 0 .93632 14.254 .0000000   1729
SU00592  SU02062  1 0 .50820 3.9978 .0000000   1709
SU00602  SU09942  1 0 1.6751 6.4609 .0000000   1364
SU00612  SU01422  1 0 .10600 .45012 .0000000   1623
SU00622  SU04292  1 0 1.3789 6.6308 .0000000  10000
SU00622  SU05402  1 0 .04404 .23184 .0000000  10000
SU00622  SU11062  1 0 2.5164 12.882 .0000000  10000
SU00632  SU06332  1 0 .04792 .33396 .0000000   2232
SU00642  SU01892  1 0 4.1871 23.648 .0000000   1364
SU00642  SU06262  1 0 2.0328 12.371 .0000000   1364
SU00652  SU00912  1 0 2.4302 17.259 .0000000   1450
SU00652  SU02032  1 0 3.1121 17.845 .0000000   2405
SU00662  SU01512  1 0 .05808 .30976 .0000000  10000
SU00662  SU08962  1 0 9.1481 37.437 .0000000   1709
SU00662  SU11062  1 0 11.069 57.985 .0000000    989
SU00672  SU11062  1 0 .05808 .28120 .0000000  10000
SU00682  SU06702  1 0 1.3460 11.122 .0000000   1364
SU00682  SU07162  1 0 1.3412 10.483 .0000000   1709
SU00682  SU09162  1 0 2.6470 18.992 .0000000   2318
SU00682  SU09162  2 0 2.5942 19.505 .0000000  10000
SU00682  SU10162  1 0 .81796 5.9580 .0000000   2405
SU00692  SU09752  1 0 .17908 .57112 .0000000   1277
SU00702  SU02422  1 0 .99704 7.6961 .0000000  10000
SU00702  SU07352  1 0 .58080 4.6130 .0000000  10000
SU00712  SU05872  1 0 1.5832 8.0678 .0000000   1623
SU00712  SU07472  1 0 1.0072 6.3070 .0000000   1795
SU00712  SU09222  1 0 .36784 1.8339 .0000000   1623
SU00722  SU08142  1 0 .13988 .58612 .0000000   1882
SU00732  SU03852  1 0 6.3109 25.575 .0000000   2405
SU00742  SU07572  1 0 .07696 .33396 .0000000   1968
SU00742  SU09412  1 0 .11084 .28992 .0000000  10000
SU00752  SU03692  1 0 .97284 2.1490 .0000000  10000
SU00752  SU05722  1 0 9.2202 26.973 .0000000  10000
SU00761  SU03951  1 0 1.1453 11.963 .0000000   4674
SU00761  SU11291  1 0 .75504 9.5300 .0000000   6577
SU00772  SU03232  1 0 .98300 4.1290 .0000000  10000
SU00782  SU04232  1 0 6.3022 23.822 .0000000   1536
SU00782  SU04362  1 0 .22700 .36300 .0000000  10000
SU00782  SU05282  1 0 1.1422 5.9968 .0000000   1536
SU00782  SU05282  2 0 1.3068 7.3418 .0000000   1450
SU00782  SU08582  1 0 1.1858 5.9048 .0000000   1795
SU00792  SU02992  1 0 .20280 .92008 .0000000  10000
SU00792  SU02992  2 0 .20812 .90024 .0000000  10000
SU00802  SU02342  1 0 9.6510 32.292 .0000000  10000
SU00802  SU03132  1 0 5.9188 19.597 .0000000   1364
SU00802  SU04072  1 0 8.9980 36.116 .0000000   1536
SU00802  SU04662  1 0 8.0010 41.639 .0000000   1277
SU00802  SU05032  1 0 4.3458 15.735 .0000000  10000
SU00802  SU07842  1 0 6.8292 28.416 .0000000   1882
SU00802  SU09842  1 0 13.189 49.842 .0000000   1536
SU00802  SU11112  1 0 15.890 35.889 .0000000  10000
SU00812  SU04852  1 0 1.2870 9.6800 .0000000  10000
SU00812  SU09932  1 0 .22700 1.4230 .0000000   1795
SU00821  SU03951  1 0 1.7974 16.896 .0000000   4153
SU00832  SU01432  1 0 1.4278 7.4488 .0000000   1364
SU00832  SU02242  1 0 2.3571 13.392 .0000000   1450
SU00842  SU06022  1 0 .04404 .27104 .0000000   1364
SU00842  SU07132  1 0 .68680 2.5410 .0000000  10000
SU00842  SU07132  2 0 .67276 2.5942 .0000000  10000
SU00852  SU08612  1 0 .13988 .36784 .0000000  10000
SU00862  SU03662  1 0 1.0450 6.1710 .0000000  10000
SU00862  SU08762  1 0 1.0261 6.3070 .0000000  10000
...
##T
SU00131  SU11112  1 0 394.7 231.8 591.0 .03051 12.396 .0000000 .00000    865
SU00231  SU11552  1 0 391.7 226.7 591.0 .01559 6.2403 .0000000 .00000    871
SU00231  SU11552  2 0 391.7 226.7 591.0 .01511 6.3928 .0000000 .00000    871
SU00331  SU11232  1 0 380.6 228.3 591.0 .01514 5.9747 .0000000 .00000    896
SU00331  SU11232  2 0 380.6 228.3 591.0 .02883 12.036 .0000000 .00000    896
SU00331  SU11232  3 0 380.6 228.3 591.0 .01472 6.1024 .0000000 .00000    896
SU00381  SU11962  1 0 375.4 227.8 591.0 .01303 6.5564 .0000000 .00000    909
SU00381  SU11962  2 0 375.4 227.8 591.0 .01303 6.3773 .0000000 .00000    909
SU00581  SU11832  1 0 392.5 228.5 591.0 .03934 10.564 .0000000 .00000    869
SU00581  SU11832  2 0 392.5 228.5 591.0 .03382 11.355 .0000000 .00000    869
SU00581  SU11832  3 0 392.5 228.5 591.0 .03475 10.761 .0000000 .00000    869
SU00761  SU11282  1 0 390.6 235.4 591.0 .01459 7.2326 .0000000 .00000    874
SU01061  SU11032  2 0 382.8 225.5 591.0 .01402 6.8359 .0000000 .00000    891
SU01121  SU11562  1 0 396.3 237.9 591.0 .01502 7.9685 .0000000 .00000    861
SU01121  SU11562  2 0 396.3 237.9 591.0 .01596 8.2324 .0000000 .00000    861
SU01121  SU11562  3 0 396.3 237.9 591.0 .01452 7.7745 .0000000 .00000    861
SU01181  SU11242  1 0 375.2 224.0 591.0 .01346 7.0826 .0000000 .00000    909
SU01181  SU11242  2 0 375.2 224.0 591.0 .01261 7.2021 .0000000 .00000    909
SU01531  SU11572  1 0 394.5 233.9 591.0 .01395 7.0783 .0000000 .00000    865
SU01531  SU11572  2 0 394.5 233.9 591.0 .01346 7.2102 .0000000 .00000    865
SU01591  SU11162  1 0 384.5 227.7 591.0 .02942 11.881 .0000000 .00000    887
SU01591  SU11162  2 0 379.6 227.7 591.0 .01460 7.0138 .0000000 .00000    899
SU01591  SU11162  3 0 380.2 227.7 591.0 .01465 6.6326 .0000000 .00000    897
SU01661  SU11662  1 0 386.3 227.1 591.0 .03456 11.243 .0000000 .00000    883
SU01661  SU11662  2 0 389.4 227.1 591.0 .02883 11.513 .0000000 .00000    876
SU01791  SU12032  1 0 374.2 228.6 591.0 .01339 6.2659 .0000000 .00000    912
SU01971  SU11192  1 0 389.5 226.1 591.0 .03960 9.9268 .0000000 .00000    876
SU01971  SU11192  2 0 389.5 226.1 591.0 .03735 10.578 .0000000 .00000    876
SU02001  SU12002  1 0 392.8 238.5 591.0 .01568 6.3284 .0000000 .00000    869
SU02171  SU11372  1 0 379.7 230.5 591.0 .01246 6.2700 .0000000 .00000    899
SU02171  SU11372  2 0 379.7 230.5 591.0 .01420 6.1965 .0000000 .00000    899
SU02391  SU11682  1 0 373.8 230.0 591.0 .01292 6.4966 .0000000 .00000    913
SU02391  SU11682  2 0 373.8 230.0 591.0 .01252 6.6197 .0000000 .00000    913
SU02492  SU11051  1 0 227.9 391.2 591.0 .01171 3.5407 .0000000 .00000   1497
SU02581  SU11062  1 0 397.0 230.5 591.0 .03881 10.535 .0000000 .00000    859
SU02701  SU11532  1 0 389.1 236.7 591.0 .01625 6.1441 .0000000 .00000    877
SU02701  SU11532  2 0 389.1 236.7 591.0 .01582 6.2430 .0000000 .00000    877
SU02711  SU12012  1 0 376.8 230.2 591.0 .01358 6.4422 .0000000 .00000    906
SU02992  SU02992  1 0 226.3 227.4 591.0 .00000 .06271 .0000000 .00000   1508
SU03121  SU11982  1 0 377.3 226.8 591.0 .01676 5.6993 .0000000 .00000    904
SU03201  SU11432  1 0 396.0 231.5 591.0 .03398 11.316 .0000000 .00000    862
SU03201  SU11432  2 0 396.0 231.5 591.0 .04376 11.559 .0000000 .00000    862
SU03471  SU11462  1 0 379.9 230.7 591.0 .01335 6.9144 .0000000 .00000    898
SU03471  SU11462  2 0 379.9 230.7 591.0 .01335 6.3491 .0000000 .00000    898
SU03471  SU11462  3 0 379.9 229.4 591.0 .01508 6.2220 .0000000 .00000    898
SU03511  SU11772  1 0 399.7 231.2 591.0 .01528 7.2094 .0000000 .00000    854
SU03511  SU11772  2 0 399.7 231.2 591.0 .01574 6.7472 .0000000 .00000    854
SU03571  SU11932  1 0 393.6 231.9 591.0 .03358 10.740 .0000000 .00000    867
SU03571  SU11932  2 0 393.6 231.9 591.0 .03908 10.029 .0000000 .00000    867
SU03602  SU11011  1 0 227.1 390.1 591.0 .01148 3.7648 .0000000 .00000   1503
SU03602  SU11011  2 0 227.1 390.1 591.0 .01178 3.6808 .0000000 .00000   1503
SU03621  SU11802  1 0 392.9 231.0 591.0 .03116 10.982 .0000000 .00000    868
SU03711  SU11402  1 0 392.1 230.3 591.0 .01607 6.2417 .0000000 .00000    870
SU03711  SU11402  2 0 392.1 230.3 591.0 .01928 6.3940 .0000000 .00000    870
SU03711  SU11402  3 0 392.1 230.3 591.0 .01607 6.4777 .0000000 .00000    870
SU03781  SU11882  1 0 383.6 235.3 591.0 .01538 5.9230 .0000000 .00000    890
SU03781  SU11882  2 0 383.6 235.3 591.0 .01538 5.9230 .0000000 .00000    890
SU03951  SU11022  1 0 398.6 236.5 591.0 .01374 6.9694 .0000000 .00000    856
SU03951  SU11022  2 0 398.6 236.5 591.0 .03161 13.154 .0000000 .00000    856
SU03951  SU11022  3 0 398.6 236.5 591.0 .03539 12.274 .0000000 .00000    856
SU03951  SU11022  4 0 398.6 236.5 591.0 .01610 7.2470 .0000000 .00000    856
SU04241  SU11212  1 0 389.1 227.6 591.0 .03207 11.396 .0000000 .00000    877
SU04241  SU11212  2 0 389.1 227.8 591.0 .03207 11.224 .0000000 .00000    877
SU04571  SU11382  1 0 392.5 235.8 591.0 .01473 7.8985 .0000000 .00000    869
SU04571  SU11382  2 0 392.5 235.8 591.0 .01332 7.9844 .0000000 .00000    869
SU04791  SU11152  1 0 378.1 230.0 591.0 .01408 6.4152 .0000000 .00000    902
SU04791  SU11152  2 0 378.1 230.0 591.0 .01494 5.7093 .0000000 .00000    902
SU04791  SU11152  3 0 377.3 230.0 591.0 .01362 6.6412 .0000000 .00000    904
SU04791  SU11152  4 0 377.3 230.0 591.0 .01402 6.5711 .0000000 .00000    904
SU05051  SU11942  1 0 388.9 229.0 591.0 .01308 6.8063 .0000000 .00000    877
SU05051  SU11942  2 0 388.9 229.0 591.0 .01624 5.9393 .0000000 .00000    877
SU05121  SU11272  1 0 379.5 230.8 591.0 .01464 6.1520 .0000000 .00000    899
SU05121  SU11272  2 0 379.5 230.8 591.0 .01505 6.3146 .0000000 .00000    899
SU05571  SU11352  1 0 404.4 235.0 591.0 .01611 6.6016 .0000000 .00000    844
SU05571  SU11352  2 0 404.4 235.0 591.0 .01709 6.6884 .0000000 .00000    844
SU05621  SU12022  1 0 388.3 226.3 591.0 .03268 10.253 .0000000 .00000    879
SU05681  SU11972  1 0 388.3 231.3 591.0 .01576 6.0519 .0000000 .00000    879
SU05681  SU11972  2 0 388.3 231.3 591.0 .01576 6.0519 .0000000 .00000    879
SU06222  SU11951  1 0 236.4 387.8 591.0 .00000 .06844 .0000000 .00000   1443
SU06222  SU11951  3 0 236.4 387.8 591.0 .00517 2.5985 .0000000 .00000   1443
SU06581  SU11902  2 0 375.5 221.3 591.0 .02680 11.239 .0000000 .00000    909
SU07401  SU11792  1 0 383.4 235.9 591.0 .01271 6.5751 .0000000 .00000    890
SU07401  SU11792  2 0 383.4 235.9 591.0 .01359 7.1016 .0000000 .00000    890
SU07661  SU11002  1 0 391.2 236.6 591.0 .01555 7.0765 .0000000 .00000    872
SU07661  SU11002  2 0 391.2 236.6 591.0 .01599 7.0320 .0000000 .00000    872
SU08321  SU11122  1 0 373.1 231.6 591.0 .01415 6.2624 .0000000 .00000    915
SU08321  SU11122  2 0 373.1 231.6 591.0 .01494 6.1981 .0000000 .00000    915
SU08622  SU08622  1 0 234.1 232.7 591.0 .00000 .06711 .0000000 .00000   1458
SU08671  SU11262  1 0 380.0 229.9 591.0 .01422 6.8691 .0000000 .00000    898
SU08671  SU11262  2 0 380.0 229.9 591.0 .01294 7.4848 .0000000 .00000    898
SU08671  SU11262  3 0 380.0 229.9 591.0 .01294 6.9107 .0000000 .00000    898
SU08691  SU11852  1 0 397.8 232.8 591.0 .03525 11.719 .0000000 .00000    858
SU08691  SU11852  2 0 398.1 232.8 591.0 .03153 12.670 .0000000 .00000    857
SU08721  SU11542  1 0 386.7 225.3 591.0 .01383 7.3213 .0000000 .00000    882
SU09651  SU11622  1 0 389.3 227.9 591.0 .03327 11.163 .0000000 .00000    877
SU09651  SU11622  2 0 389.3 227.9 591.0 .02833 13.360 .0000000 .00000    877
SU10391  SU11862  1 0 404.5 237.0 591.0 .04029 10.881 .0000000 .00000    844
SU10651  SU11412  1 0 393.0 229.3 591.0 .03347 11.292 .0000000 .00000    868
SU10651  SU11412  2 0 393.0 229.3 591.0 .05456 10.485 .0000000 .00000    868
SU10651  SU11412  3 0 393.5 229.3 591.0 .03264 10.763 .0000000 .00000    867
SU10951  SU11872  1 0 404.1 230.3 591.0 .03393 12.167 .0000000 .00000    844
SU10951  SU11872  2 0 404.1 230.3 591.0 .02935 11.722 .0000000 .00000    844
SU10991  SU04852  1 0 376.4 231.2 591.0 .01395 7.1126 .0000000 .00000    907
SU10991  SU04852  2 0 376.4 230.1 591.0 .01355 6.5883 .0000000 .00000    907
SU11032  SU01061  1 0 225.5 382.8 591.0 .00470 2.4164 .0000000 .00000   1513
SU11041  SU01672  1 0 386.1 228.7 591.0 .03627 10.062 .0000000 .00000    884
SU11041  SU01672  2 0 386.1 228.7 591.0 .01289 6.5753 .0000000 .00000    884
SU11041  SU01672  3 0 386.1 228.7 591.0 .03273 11.110 .0000000 .00000    884
SU11051  SU02492  2 0 391.2 227.9 591.0 .03997 10.496 .0000000 .00000    872
SU11071  SU00472  1 0 375.6 228.5 591.0 .01349 6.1373 .0000000 .00000    908
SU11071  SU00472  2 0 375.6 228.5 591.0 .01264 6.7596 .0000000 .00000    908
SU11071  SU00472  3 0 375.6 229.5 591.0 .01390 6.0827 .0000000 .00000    908
SU11071  SU00472  4 0 376.2 229.5 591.0 .01519 6.3506 .0000000 .00000    907
SU11071  SU00472  5 0 376.2 229.5 591.0 .01394 6.5225 .0000000 .00000    907
SU11081  SU02982  1 0 378.2 226.6 591.0 .01495 6.1779 .0000000 .00000    902
SU11081  SU02982  2 0 377.9 226.6 591.0 .01578 6.3781 .0000000 .00000    903
SU11091  SU06602  1 0 393.0 230.0 591.0 .03578 11.162 .0000000 .00000    868
SU11091  SU06602  2 0 393.0 230.0 591.0 .03622 10.856 .0000000 .00000    868
SU11101  SU00802  1 0 401.4 233.1 591.0 .03252 12.740 .0000000 .00000    850
SU11101  SU00802  2 0 401.4 233.1 591.0 .01540 7.1670 .0000000 .00000    850
SU11131  SU00682  1 0 387.5 236.5 591.0 .01389 7.6202 .0000000 .00000    880
SU11131  SU00682  2 0 387.5 236.5 591.0 .01299 7.6115 .0000000 .00000    880
SU11131  SU00682  3 0 387.5 228.8 591.0 .03031 12.067 .0000000 .00000    880
SU11141  SU04772  1 0 398.2 237.7 1151. .00260 1.7786 .0000000 .00000   1669
SU11141  SU04772  2 0 398.2 237.7 1151. .00214 1.7890 .0000000 .00000   1669
SU11141  SU04772  3 0 398.2 231.1 1151. .00424 3.7534 .0000000 .00000   1669
SU11141  SU04772  4 0 398.2 235.4 1151. .00237 1.7527 .0000000 .00000   1669
SU11141  SU04772  5 0 398.2 235.4 1151. .00260 1.7394 .0000000 .00000   1669
SU11141  SU04772  6 0 398.2 235.5 1151. .00248 1.6814 .0000000 .00000   1669
SU11141  SU04772  7 0 398.2 235.5 1151. .00248 1.7176 .0000000 .00000   1669
SU11171  SU07872  1 0 390.9 228.9 591.0 .01461 6.9850 .0000000 .00000    873
SU11171  SU07872  2 0 390.5 228.9 591.0 .01366 6.7424 .0000000 .00000    874
SU11171  SU07872  3 0 390.9 228.9 591.0 .01505 6.8933 .0000000 .00000    873
SU11171  SU07872  4 0 390.5 228.9 591.0 .01318 7.1242 .0000000 .00000    874
SU11181  SU06362  1 0 394.2 232.2 591.0 .01437 6.8018 .0000000 .00000    866
SU11201  SU00942  1 0 377.8 231.0 591.0 .01320 6.2075 .0000000 .00000    903
SU11201  SU00942  2 0 377.8 231.0 591.0 .01320 6.8398 .0000000 .00000    903
SU11201  SU00942  3 0 377.8 231.0 591.0 .01320 6.3664 .0000000 .00000    903
SU11221  SU03902  1 0 380.0 220.0 591.0 .01459 5.4744 .0000000 .00000    898
SU11221  SU03902  2 0 380.0 220.0 591.0 .01381 6.8471 .0000000 .00000    898
SU11221  SU03902  3 0 380.0 220.0 591.0 .01335 6.2256 .0000000 .00000    898
SU11221  SU03902  4 0 380.0 220.0 591.0 .01294 6.4396 .0000000 .00000    898
SU11251  SU00732  1 0 396.9 234.1 591.0 .04067 10.509 .0000000 .00000    860
SU11291  SU00022  1 0 393.3 236.3 591.0 .03489 9.2175 .0000000 .00000    868
SU11291  SU00022  2 0 393.3 236.3 591.0 .04087 9.8040 .0000000 .00000    868
SU11291  SU00022  3 0 393.3 236.3 591.0 .01572 6.9783 .0000000 .00000    868
SU11291  SU00022  4 0 393.3 236.3 591.0 .01572 7.1455 .0000000 .00000    868
SU11301  SU06022  1 0 396.5 233.6 591.0 .03357 10.923 .0000000 .00000    861
SU11301  SU06022  2 0 396.5 233.6 591.0 .03965 11.230 .0000000 .00000    861
SU11311  SU06302  1 0 386.7 231.3 591.0 .01520 6.1680 .0000000 .00000    882
SU11311  SU06302  2 0 386.7 231.3 591.0 .03682 8.6704 .0000000 .00000    882
SU11321  SU02732  1 0 393.8 232.7 591.0 .03498 11.344 .0000000 .00000    867
SU11321  SU02732  2 0 393.8 232.7 591.0 .03405 11.564 .0000000 .00000    867
SU11331  SU01072  1 0 405.6 235.3 591.0 .01766 7.0872 .0000000 .00000    841
SU11331  SU01072  2 0 405.6 235.3 591.0 .01766 7.3063 .0000000 .00000    841
SU11341  SU05332  1 0 403.6 234.8 591.0 .04109 9.3785 .0000000 .00000    845
SU11341  SU05332  2 0 403.6 234.8 591.0 .04207 10.110 .0000000 .00000    845
SU11341  SU05332  3 0 403.6 234.8 591.0 .04109 10.147 .0000000 .00000    845
SU11391  SU00782  1 0 379.3 229.4 591.0 .01503 5.7901 .0000000 .00000    900
SU11421  SU10912  1 0 389.0 224.4 591.0 .02739 12.354 .0000000 .00000    877
SU11421  SU10912  2 0 389.0 224.4 591.0 .03098 11.279 .0000000 .00000    877
SU11421  SU10912  3 0 389.0 224.4 591.0 .02739 11.566 .0000000 .00000    877
SU11441  SU01582  1 0 382.6 231.1 591.0 .01571 5.9073 .0000000 .00000    892
SU11441  SU01582  2 0 382.6 231.1 591.0 .01354 6.6225 .0000000 .00000    892
SU11441  SU01582  3 0 382.6 231.1 591.0 .01530 5.7629 .0000000 .00000    892
SU11451  SU01802  1 0 385.5 233.9 591.0 .01285 7.4609 .0000000 .00000    885
SU11471  SU09352  1 0 392.9 232.3 591.0 .01657 6.8731 .0000000 .00000    868
SU11471  SU09352  2 0 392.9 232.3 591.0 .01657 6.6882 .0000000 .00000    868
SU11481  SU06672  1 0 390.4 231.7 591.0 .01409 6.8024 .0000000 .00000    874
SU11481  SU06672  2 0 390.4 231.7 591.0 .01636 6.0012 .0000000 .00000    874
SU11491  SU01162  1 0 393.0 231.2 591.0 .03578 11.063 .0000000 .00000    868
SU11501  SU06692  1 0 400.3 234.3 591.0 .01628 6.5880 .0000000 .00000    852
SU11511  SU01272  1 0 388.9 233.4 591.0 .01624 6.1070 .0000000 .00000    877
SU11511  SU01272  2 0 388.9 233.4 591.0 .01624 6.1390 .0000000 .00000    877
SU11521  SU01742  1 0 391.0 236.1 591.0 .01370 7.1077 .0000000 .00000    873
SU11581  SU00972  1 0 381.3 230.4 591.0 .01432 5.8688 .0000000 .00000    895
SU11581  SU00972  2 0 381.3 230.4 591.0 .03451 10.524 .0000000 .00000    895
SU11581  SU00972  3 0 381.3 230.4 591.0 .01711 5.6919 .0000000 .00000    895
SU11591  SU06262  1 0 384.3 228.6 591.0 .01454 6.2197 .0000000 .00000    888
SU11591  SU06262  2 0 384.3 228.6 591.0 .03023 5.6982 .0000000 .00000    888
SU11591  SU06262  3 0 384.3 228.6 591.0 .02541 6.2436 .0000000 .00000    888
SU11601  SU01462  1 0 378.4 228.5 591.0 .01402 5.6077 .0000000 .00000    902
SU11601  SU01462  2 0 376.8 228.5 591.0 .01524 5.8261 .0000000 .00000    906
SU11601  SU01462  3 0 378.4 228.9 591.0 .01497 5.6387 .0000000 .00000    902
SU11601  SU01462  4 0 376.8 228.9 591.0 .01443 5.8237 .0000000 .00000    906
SU11611  SU00292  1 0 376.6 228.4 591.0 .01227 6.9841 .0000000 .00000    906
SU11631  SU06042  1 0 375.6 230.7 591.0 .01220 6.7601 .0000000 .00000    908
SU11631  SU06042  2 0 375.6 230.7 591.0 .01264 6.5610 .0000000 .00000    908
SU11631  SU06042  3 0 375.6 230.7 591.0 .01305 6.4565 .0000000 .00000    908
SU11631  SU06042  4 0 375.6 230.8 591.0 .01474 6.0085 .0000000 .00000    908
SU11631  SU06042  5 0 375.6 230.8 591.0 .01305 6.1726 .0000000 .00000    908
SU11631  SU06042  6 0 375.6 230.8 591.0 .01474 6.2549 .0000000 .00000    908
SU11641  SU05632  1 0 388.1 225.3 591.0 .01393 6.7417 .0000000 .00000    879
SU11641  SU05632  2 0 388.1 224.5 591.0 .01393 6.8534 .0000000 .00000    879
SU11651  SU07022  1 0 389.0 227.5 591.0 .01490 6.4874 .0000000 .00000    877
SU11651  SU07022  2 0 389.0 228.3 591.0 .01490 6.2923 .0000000 .00000    877
SU11651  SU07022  3 0 389.0 229.5 591.0 .01447 6.3189 .0000000 .00000    877
SU11671  SU08132  1 0 382.5 230.6 591.0 .01529 6.3262 .0000000 .00000    892
SU11671  SU08132  2 0 382.5 230.6 591.0 .01441 6.1632 .0000000 .00000    892
SU11671  SU08132  3 0 382.5 228.1 591.0 .01571 6.0680 .0000000 .00000    892
...
##R
SU00131  SU11112  1
SU00231  SU11552  1
SU00231  SU11552  2
SU00331  SU11232  1
SU00331  SU11232  2
SU00331  SU11232  3
SU00381  SU11962  1
SU00381  SU11962  2
SU00581  SU11832  1
SU00581  SU11832  2
SU00581  SU11832  3
SU00761  SU11282  1
SU01061  SU11032  2
SU01121  SU11562  1
SU01121  SU11562  2
SU01121  SU11562  3
SU01181  SU11242  1
SU01181  SU11242  2
SU01531  SU11572  1
SU01531  SU11572  2
SU01591  SU11162  1
SU01591  SU11162  2
SU01591  SU11162  3
SU01661  SU11662  1
SU01661  SU11662  2
SU01791  SU12032  1
SU01971  SU11192  1
SU01971  SU11192  2
SU02001  SU12002  1
SU02171  SU11372  1
SU02171  SU11372  2
SU02391  SU11682  1
SU02391  SU11682  2
SU02492  SU11051  1
SU02581  SU11062  1
SU02701  SU11532  1
SU02701  SU11532  2
SU02711  SU12012  1
SU02992  SU02992  1                    .1263 90.00  1   0       SYMM
SU03121  SU11982  1
SU03201  SU11432  1
SU03201  SU11432  2
SU03471  SU11462  1
SU03471  SU11462  2
SU03471  SU11462  3
SU03511  SU11772  1
SU03511  SU11772  2
SU03571  SU11932  1
SU03571  SU11932  2
SU03602  SU11011  1
SU03602  SU11011  2
SU03621  SU11802  1
SU03711  SU11402  1
SU03711  SU11402  2
SU03711  SU11402  3
SU03781  SU11882  1
SU03781  SU11882  2
SU03951  SU11022  1
SU03951  SU11022  2
SU03951  SU11022  3
SU03951  SU11022  4
SU04241  SU11212  1
SU04241  SU11212  2
SU04571  SU11382  1
SU04571  SU11382  2
SU04791  SU11152  1
SU04791  SU11152  2
SU04791  SU11152  3
SU04791  SU11152  4
SU05051  SU11942  1
SU05051  SU11942  2
SU05121  SU11272  1
SU05121  SU11272  2
SU05571  SU11352  1
SU05571  SU11352  2
SU05621  SU12022  1
SU05681  SU11972  1
SU05681  SU11972  2
SU06222  SU11951  1                    .1263 90.00  1   0       SYMM
SU06222  SU11951  3
SU06581  SU11902  2
SU07401  SU11792  1
SU07401  SU11792  2
SU07661  SU11002  1
SU07661  SU11002  2
SU08321  SU11122  1
SU08321  SU11122  2
SU08622  SU08622  1                    .0855 90.00  1   0       SYMM
SU08671  SU11262  1
SU08671  SU11262  2
SU08671  SU11262  3
SU08691  SU11852  1
SU08691  SU11852  2
SU08721  SU11542  1
SU09651  SU11622  1
SU09651  SU11622  2
SU10391  SU11862  1
SU10651  SU11412  1
SU10651  SU11412  2
SU10651  SU11412  3
SU10951  SU11872  1
SU10951  SU11872  2
SU10991  SU04852  1
SU10991  SU04852  2
SU11032  SU01061  1
SU11041  SU01672  1
SU11041  SU01672  2
SU11041  SU01672  3
SU11051  SU02492  2
SU11071  SU00472  1
SU11071  SU00472  2
SU11071  SU00472  3
SU11071  SU00472  4
SU11071  SU00472  5
SU11081  SU02982  1
SU11081  SU02982  2
SU11091  SU06602  1
SU11091  SU06602  2
SU11101  SU00802  1
SU11101  SU00802  2
SU11131  SU00682  1
SU11131  SU00682  2
SU11131  SU00682  3
SU11141  SU04772  1
SU11141  SU04772  2
SU11141  SU04772  3
SU11141  SU04772  4
SU11141  SU04772  5
SU11141  SU04772  6
SU11141  SU04772  7
SU11171  SU07872  1
SU11171  SU07872  2
SU11171  SU07872  3
SU11171  SU07872  4
SU11181  SU06362  1
SU11201  SU00942  1
SU11201  SU00942  2
SU11201  SU00942  3
SU11221  SU03902  1
SU11221  SU03902  2
SU11221  SU03902  3
SU11221  SU03902  4
SU11251  SU00732  1
SU11291  SU00022  1
SU11291  SU00022  2
SU11291  SU00022  3
SU11291  SU00022  4
SU11301  SU06022  1
SU11301  SU06022  2
SU11311  SU06302  1
SU11311  SU06302  2
SU11321  SU02732  1
SU11321  SU02732  2
SU11331  SU01072  1
SU11331  SU01072  2
SU11341  SU05332  1
SU11341  SU05332  2
SU11341  SU05332  3
SU11391  SU00782  1
SU11421  SU10912  1
SU11421  SU10912  2
SU11421  SU10912  3
SU11441  SU01582  1
SU11441  SU01582  2
SU11441  SU01582  3
SU11451  SU01802  1
SU11471  SU09352  1
SU11471  SU09352  2
SU11481  SU06672  1
SU11481  SU06672  2
SU11491  SU01162  1
SU11501  SU06692  1
SU11511  SU01272  1
SU11511  SU01272  2
SU11521  SU01742  1
SU11581  SU00972  1
SU11581  SU00972  2
SU11581  SU00972  3
SU11591  SU06262  1
SU11591  SU06262  2
SU11591  SU06262  3
SU11601  SU01462  1
SU11601  SU01462  2
SU11601  SU01462  3
SU11601  SU01462  4
SU11611  SU00292  1
SU11631  SU06042  1
SU11631  SU06042  2
SU11631  SU06042  3
SU11631  SU06042  4
SU11631  SU06042  5
SU11631  SU06042  6
SU11641  SU05632  1
SU11641  SU05632  2
SU11651  SU07022  1
SU11651  SU07022  2
SU11651  SU07022  3
SU11671  SU08132  1
SU11671  SU08132  2
SU11671  SU08132  3
...
##E
NE    .000000
